* PSpice Model Editor - Version 22.1.0
*$
*BeginSpec
*IF: (1.2000,0) (1.6000,0) (1.6500,0) (1.7000,0) (1.8000,5.0000E-3) (2,15.000E-3) (2.2000,24.000E-3) (2.4000,32.500E-3) (2.6000,41.000E-3)
*IF: (2.8000,50.000E-3)
*JC:
*RL:
*RB: Vz=0 Iz=0 Zz=0
*RR: Trr=0 Ifwd=10.000E-3 Irev=10.000E-3 Rl=100
*EndSpec
*BeginTrace
*IF: 1,0,0,2.8000,1,3,0,0,-1 (27)
*JC: 0,1,.1,10,1,3,0,0,-1 (27)
*RL: 0,0,1,100,1,3,0,0,-1 (27)
*RB: 0,1,100.00E-6,1,1,3,0,0,-1 (27)
*RR: 0,0,-5.0000E-9,20.000E-9,1,3,0,0,-1 (27)
*EndTrace
*BeginParam
*IS=13.797E-9 (10.000E-21,.1,0)
*N=4.9950 (.2,5,0)
*RS=16.250 (1.0000E-6,100,0)
*IKF=999 (0,1.0000E3,0)
*XTI=3 (-100,100,0)
*EG=1.1100 (.1,5.5100,0)
*CJO=1.0000E-12 (10.000E-21,1.0000E-3,0)
*M=.3333 (.1,10,0)
*VJ=.75 (.3905,10,0)
*FC=.5 (1.0000E-3,10,0)
*ISR=100.00E-12 (10.000E-21,.1,0)
*NR=2 (.5,5,0)
*BV=100 (.1,1.0000E6,0)
*IBV=100.00E-6 (1.0000E-9,10,0)
*TT=5.0000E-9 (100.00E-18,1.0000E-3,0)
*EndParam
*DEVICE=YELLOW_LED,D
* YELLOW_LED D model
* updated using Model Editor release 22.1.0 on 05/19/23 at 22:10
* The Model Editor is a PSpice product.
.MODEL YELLOW_LED D
+ IS=13.797E-9
+ N=4.9950
+ RS=16.250

*$
